@<TRIPOS>MOLECULE
mol-opt-00.out
 41 43 0 0 0
SMALL
MULLIKEN_CHARGES
****
Gaussian homes/huanglei/prog/g09/g09 # opt ram1
@<TRIPOS>ATOM
      1 N          -3.0785   -2.5590   -0.2877 N.ar    1  LIG1       -0.1829
      2 N          -5.4804   -2.8848   -0.0236 N.pl3   1  LIG1       -0.2912
      3 N          -0.9520    3.5958    0.0175 N.ar    1  LIG1       -0.2269
      4 N           1.1346    2.5625    0.5190 N.pl3   1  LIG1       -0.2156
      5 N           4.9482   -1.5720   -0.2044 N.pl3   1  LIG1       -0.2535
      6 N          -0.7776    1.1419    0.1419 N.ar    1  LIG1       -0.2090
      7 C          -0.7533   -1.7383   -0.6312 C.3     1  LIG1       -0.1559
      8 C          -2.1871   -1.4956   -0.3420 C.ar    1  LIG1        0.0293
      9 C          -4.3265   -2.1072   -0.0321 C.ar    1  LIG1       -0.1421
     10 C          -2.7584   -0.2399   -0.1091 C.ar    1  LIG1       -0.4047
     11 C          -2.1152    1.0582   -0.0636 C.ar    1  LIG1        0.1461
     12 C          -2.9203    2.2146   -0.2270 C.ar    1  LIG1       -0.2973
     13 C          -2.2701    3.4565   -0.1778 C.ar    1  LIG1        0.0028
     14 C          -0.2323    2.4143    0.1929 C.ar    1  LIG1        0.1508
     15 C           2.0590    1.5079    0.3160 C.ar    1  LIG1       -0.0036
     16 C           1.9635    0.2999    1.0330 C.ar    1  LIG1       -0.0712
     17 C           2.9229   -0.6921    0.8846 C.ar    1  LIG1       -0.1833
     18 C           4.0254   -0.5290    0.0126 C.ar    1  LIG1        0.0720
     19 C           4.9958   -2.6206    0.7831 C.3     1  LIG1       -0.0930
     20 C           6.2075   -1.2181   -0.8089 C.3     1  LIG1       -0.0928
     21 C           4.1229    0.6958   -0.6905 C.ar    1  LIG1       -0.1757
     22 C           3.1584    1.6822   -0.5499 C.ar    1  LIG1       -0.1273
     23 S          -4.4279   -0.3807    0.1490 S.2     1  LIG1        0.4571
     24 H          -0.4239   -1.0770   -1.4713 H       1  LIG1        0.1039
     25 H          -0.5594   -2.8020   -0.9154 H       1  LIG1        0.0953
     26 H          -0.1388   -1.4913    0.2725 H       1  LIG1        0.1097
     27 H          -6.0935   -2.6702    0.7341 H       1  LIG1        0.1940
     28 H          -5.3260   -3.8668   -0.1320 H       1  LIG1        0.2050
     29 H           1.5063    3.4680    0.3053 H       1  LIG1        0.2284
     30 H          -4.0001    2.1401   -0.3972 H       1  LIG1        0.1540
     31 H          -2.8327    4.3997   -0.3103 H       1  LIG1        0.1626
     32 H           1.1224    0.1271    1.7238 H       1  LIG1        0.1524
     33 H           2.7993   -1.6177    1.4672 H       1  LIG1        0.1355
     34 H           5.8327   -3.3291    0.5468 H       1  LIG1        0.0849
     35 H           4.0315   -3.1957    0.7480 H       1  LIG1        0.0867
     36 H           5.1425   -2.2273    1.8260 H       1  LIG1        0.0605
     37 H           6.8838   -2.1126   -0.8328 H       1  LIG1        0.0852
     38 H           6.7318   -0.3867   -0.2631 H       1  LIG1        0.0598
     39 H           6.0226   -0.8923   -1.8678 H       1  LIG1        0.0857
     40 H           4.9637    0.8876   -1.3739 H       1  LIG1        0.1343
     41 H           3.2712    2.6159   -1.1241 H       1  LIG1        0.1300
@<TRIPOS>BOND
     1    39    20    1
     2    24     7    1
     3    40    21    1
     4    41    22    1
     5    25     7    1
     6    37    20    1
     7    20    38    1
     8    20     5    1
     9    21    22   ar
    10    21    18   ar
    11     7     8    1
    12     7    26    1
    13    22    15   ar
    14    30    12    1
    15     8     1   ar
    16     8    10   ar
    17    31    13    1
    18     1     9   ar
    19    12    13   ar
    20    12    11   ar
    21     5    18    1
    22     5    19    1
    23    13     3   ar
    24    28     2    1
    25    10    11    1
    26    10    23   ar
    27    11     6   ar
    28     9     2    1
    29     9    23   ar
    30     2    27    1
    31    18    17   ar
    32     3    14   ar
    33     6    14   ar
    34    14     4    1
    35    29     4    1
    36    15     4    1
    37    15    16   ar
    38    34    19    1
    39    35    19    1
    40    19    36    1
    41    17    16   ar
    42    17    33    1
    43    16    32    1
